test/test_files/validation_tests/case2736sp_res.m
function mpc = case2736sp_res
%CASE2736SP_RES

%% MATPOWER Case Format : Version 2
mpc.version = '2';

%%-----  Power Flow Data  -----%%
%% system MVA base
mpc.baseMVA = 100;

%% bus data
%    bus_i    type    Pd    Qd    Gs    Bs    area    Vm    Va    baseKV    zone    Vmax    Vmin    lam_P    lam_Q    mu_Vmax    mu_Vmin
mpc.bus = [
    1    1    0    0    0    0    1    1.08125346    36.8853534    220    1    1.11    0.95    97.9642    0.1737    0.0000    0.0000;
    2    1    0    0    0    0    1    1.08546133    38.6783845    220    1    1.11    0.95    97.5886    0.0592    0.0000    0.0000;
    3    1    0    0    0    0    1    1.06177875    12.6424648    220    1    1.11    0.95    110.9086    0.1409    0.0000    0.0000;
    4    1    0    0    0    0    1    1.07016742    32.5804409    220    1    1.11    0.95    100.0063    0.4639    0.0000    0.0000;
    5    1    0    0    0    0    1    1.07019846    32.5796157    220    1    1.11    0.95    100.0073    0.4634    0.0000    0.0000;
    6    1    0    0    0    0    1    1.04616829    21.1800432    220    1    1.11    0.95    104.7833    0.8183    0.0000    0.0000;
    7    1    0    0    0    0    1    1.04629446    21.1897692    220    1    1.11    0.95    104.7745    0.8156    0.0000    0.0000;
    8    1    0    0    0    0    1    1.00993351    25.0329749    400    1    1.05    0.95    103.5752    0.3513    0.0000    0.0000;
    9    1    0    0    0    0    1    1.00995948    25.0379271    400    1    1.05    0.95    103.5718    0.3500    0.0000    0.0000;
    10    1    0    0    0    0    1    1.03938715    21.1683941    220    1    1.11    0.95    105.6057    1.0277    0.0000    0.0000;
    11    1    0    0    0    0    1    1.03927223    21.1623635    220    1    1.11    0.95    105.6080    1.0297    0.0000    0.0000;
    12    1    0    0    0    0    1    1.03918886    21.1673616    220    1    1.11    0.95    105.6066    1.0315    0.0000    0.0000;
    13    1    0    0    0    0    1    1.03914087    21.1573524    220    1    1.11    0.95    105.6077    1.0320    0.0000    0.0000;
    14    1    0    0    0    0    1    1.00072748    26.4529844    400    1    1.05    0.95    102.9672    0.6071    0.0000    0.0000;
    15    1    0    0    0    0    1    1.01467483    22.2168723    400    1    1.05    0.95    104.4832    0.0632    0.0000    0.0000;
    16    1    0    0    0    0    1    1.01467483    22.2168723    400    1    1.05    0.95    104.4832    0.0632    0.0000    0.0000;
    17    2    0    0    0    0    1    1.07106    15.625766    220    1    1.11    0.95    108.4499    0.1084    0.0000    0.0000;
    18    1    0    0    0    0    1    1.07112615    15.6256281    220    1    1.11    0.95    108.4483    0.1077    0.0000    0.0000;
    19    1    0    0    0    0    1    1.07524493    33.6238675    220    1    1.11    0.95    99.4431    0.3577    0.0000    0.0000;
    20    1    0    0    0    0    1    1.07529202    33.6268567    220    1    1.11    0.95    99.4429    0.3572    0.0000    0.0000;
    21    1    0    0    0    0    1    1.05540282    20.3050051    220    1    1.11    0.95    105.9001    0.5847    0.0000    0.0000;
    22    1    0    0    0    0    1    1.05540282    20.3050051    220    1    1.11    0.95    105.9001    0.5847    0.0000    0.0000;
    23    1    0    0    0    0    1    1.03847214    21.1571612    220    1    1.11    0.95    105.5971    1.0403    0.0000    0.0000;
    24    1    0    0    0    0    1    1.0772279    35.3719896    220    1    1.11    0.95    98.8433    0.2741    0.0000    0.0000;
    25    1    0    0    0    0    1    1.0120845    24.2188138    400    1    1.05    0.95    103.8800    0.3703    0.0000    0.0000;
    26    2    61.358    72.054    0    0    1    1.09091    37.2248119    220    1    1.11    0.95    97.7882    0.0000    1044.8801    0.0000;
    27    2    84.861    122.06    0    0    1    1.09091    38.9693143    220    1    1.11    0.95    97.4519    0.0000    1601.4174    0.0000;
    28    3    49    74    0    0    1    1.02665    36.029099    400    1    1.05    0.95    98.6073    -0.0008    0.0000    0.0000;
    29    2    49    74    0    0    1    1.02665    36.0352348    400    1    1.05    0.95    98.6040    -0.0000    0.0000    0.0000;
    30    1    0    0    0    0    1    1.04529745    20.8843109    220    1    1.11    0.95    105.6749    0.8355    0.0000    0.0000;
    31    1    0    0    0    0    1    1.02623276    34.534909    400    1    1.05    0.95    98.8892    -0.0693    0.0000    0.0000;
    32    1    0    0    0    0    1    1.03601095    20.842617    220    1    1.11    0.95    105.8196    1.0971    0.0000    0.0000;
    33    1    0    0    0    0    1    1.07745681    30.248611    220    1    1.11    0.95    100.8633    0.2948    0.0000    0.0000;
    34    1    0    0    0    0    1    1.07533448    26.8232827    220    2    1.11    0.95    101.9122    -0.3204    0.0000    0.0000;
    35    1    0    0    0    0    1    1.07722706    27.2815104    220    2    1.11    0.95    102.0744    -0.6743    0.0000    0.0000;
    36    1    0    0    0    0    1    1.08613097    28.2402594    220    2    1.11    0.95    101.3876    -0.8651    0.0000    0.0000;
    37    1    0    0    0    0    1    1.08611848    28.2383499    220    2    1.11    0.95    101.3886    -0.8649    0.0000    0.0000;
    38    1    0    0    0    0    1    1.06287828    25.5874127    220    2    1.11    0.95    102.7618    -0.4427    0.0000    0.0000;
    39    1    0    0    0    0    1    1.10336057    28.6411155    220    2    1.11    0.95    101.1082    -3.0865    18045.9803    0.0000;
    40    1    0    0    0    0    1    1.10324822    28.6415778    220    2    1.11    0.95    101.1098    -3.0744    0.0000    0.0000;
    41    1    0    0    0    0    1    1.01847761    28.8405687    400    2    1.05    0.95    101.1345    -2.0956    0.0000    0.0000;
    42    2    25    0    0    0    1    1.09091    27.3456633    220    2    1.11    0.95    101.8427    -0.1316    0.0000    0.0000;
    43    2    26    0    0    0    1    1.09091    27.3637465    220    2    1.11    0.95    101.8368    -0.1325    0.0000    0.0000;
    44    2    25    0    0    0    1    1.01857    27.8650928    400    2    1.05    0.95    102.0500    -0.0378    0.0000    0.0000;
    45    1    0    0    0    0    1    1.01855147    27.8619586    400    2    1.05    0.95    102.0499    -0.0374    0.0000    0.0000;
    46    1    0    0    0    0    1    1.09989869    28.1386446    220    2    1.11    0.95    101.4510    -2.8780    0.0000    0.0000;
    47    1    0    0    0    0    1    1.03199425    25.4737095    400    2    1.05    0.95    102.2308    -0.8351    0.0000    0.0000;
    48    1    0    0    0    0    1    1.03196384    25.4678655    400    2    1.05    0.95    102.2336    -0.8342    0.0000    0.0000;
    49    1    0    0    0    0    1    1.02595392    27.3363253    400    2    1.05    0.95    102.0681    -0.1569    0.0000    0.0000;
    50    1    0    0    0    0    1    1.07150003    26.647604    220    2    1.11    0.95    102.0731    -0.4925    0.0000    0.0000;
    51    1    0    0    0    0    1    1.07147915    26.6504287    220    2    1.11    0.95    102.0731    -0.4924    0.0000    0.0000;
    52    1    0    0    0    0    1    1.03222432    28.0793378    400    2    1.05    0.95    101.6773    -0.7629    0.0000    0.0000;
    53    1    0    0    0    0    1    1.03225373    28.0814392    400    2    1.05    0.95    101.6757    -0.7648    0.0000    0.0000;
    54    2    13    0    0    0    1    1.09116    29.2594144    220    2    1.11    0.95    100.9266    -1.0086    0.0000    0.0000;
    55    2    13    0    0    0    1    1.09114    29.2558686    220    2    1.11    0.95    100.9250    -1.0101    0.0000    0.0000;
    56    2    13    0    0    0    1    1.04039    29.0110334    400    2    1.05    0.95    101.1741    -1.1458    0.0000    0.0000;
    57    2    26    0    0    0    1    1.04036    29.0074767    400    2    1.05    0.95    101.1759    -1.1461    0.0000    0.0000;
    58    2    89.067    40    0    0    1    1.08754    26.9059564    220    2    1.11    0.95    102.0281    -0.2262    0.0000    0.0000;
    59    1    0    0    0    0    1    1.08752075    26.9077088    220    2    1.11    0.95    102.0268    -0.2267    0.0000    0.0000;
    60    1    0    0    0    0    1    1.09609521    28.0603476    220    2    1.11    0.95    101.4486    -2.4534    0.0000    0.0000;
    61    1    0    0    0    0    1    1.09049592    26.9203105    220    2    1.11    0.95    102.1670    -0.6982    0.0000    0.0000;
    62    1    0    0    0    0    1    1.09047502    26.9173476    220    2    1.11    0.95    102.1674    -0.6941    0.0000    0.0000;
    63    1    0    0    0    0    1    1.04289749    27.9292993    400    2    1.05    0.95    101.4167    -1.0744    0.0000    0.0000;
    64    1    0    0    0    0    1    1.04284829    27.9176153    400    2    1.05    0.95    101.4211    -1.0730    0.0000    0.0000;
    65    1    0    0    0    0    1    1.07941188    27.1554995    220    2    1.11    0.95    101.8675    -0.6568    0.0000    0.0000;
    66    1    0    0    0    0    1    1.08092315    27.3215833    220    2    1.11    0.95    101.7568    -0.6842    0.0000    0.0000;
    67    1    0    0    0    0    1    1.07214542    27.3693865    220    2    1.11    0.95    101.7225    -0.4651    0.0000    0.0000;
    68    1    0    0    0    0    1    1.08698905    32.4503527    220    3    1.11    0.95    99.8077    -0.3688    0.0000    0.0000;
    69    1    10.327    0    0    0    1    1.09189601    28.9772388    220    3    1.11    0.95    101.2532    -0.5368    0.0000    0.0000;
    70    1    8.032    3.714    0    0    1    1.0917407    28.9841869    220    3    1.11    0.95    101.2506    -0.5330    0.0000    0.0000;
    71    1    0    0    0    0    1    1.08619188    32.1688386    220    3    1.11    0.95    99.5961    0.0929    0.0000    0.0000;
    72    1    0    0    0    0    1    1.08624998    32.1808241    220    3    1.11    0.95    99.5928    0.0917    0.0000    0.0000;
    73    1    0    0    0    0    1    1.08712237    31.8564698    220    3    1.11    0.95    99.7104    0.0192    0.0000    0.0000;
    74    1    0    0    0    0    1    1.08709996    31.8515922    220    3    1.11    0.95    99.7113    0.0193    0.0000    0.0000;
    75    1    0    0    0    0    1    1.08384882    30.5718825    220    3    1.11    0.95    100.6839    0.1752    0.0000    0.0000;
    76    1    0    0    0    0    1    1.08372761    30.5647096    220    3    1.11    0.95    100.6881    0.1774    0.0000    0.0000;
    77    2    27    70    0    0    1    1.09091    32.9847937    220    3    1.11    0.95    99.2188    0.0000    0.0000    0.0000;
    78    2    18.7    42    0    0    1    1.09091    33.0098492    220    3    1.11    0.95    99.2865    0.0000    0.0000    0.0000;
    79    1    4.934    0.817    0    0    1    1.07984886    31.6799072    220    3    1.11    0.95    100.0821    0.2170    0.0000    0.0000;
    80    1    0    0    0    0    1    1.07986253    31.6810842    220    3    1.11    0.95    100.0813    0.2168    0.0000    0.0000;
    81    2    18    57    0    0    1    1.02168    31.9851712    400    3    1.05    0.95    99.4311    -0.0467    0.0000    0.0000;
    82    1    0    0    0    0    1    1.08265832    30.9064358    220    3    1.11    0.95    99.9377    -0.6237    0.0000    0.0000;
    83    1    0    0    0    0    1    1.08749189    31.367232    220    3    1.11    0.95    100.0804    0.0223    0.0000    0.0000;
    84    1    0    0    0    0    1    1.08749725    31.3723624    220    3    1.11    0.95    100.0786    0.0222    0.0000    0.0000;
    85    1    44.864    -6.4    0    0    1    1.08837496    32.432599    220    3    1.11    0.95    99.7311    -0.3991    0.0000    0.0000;
    86    1    0    0    0    0    1    1.08835892    32.4271669    220    3    1.11    0.95    99.7331    -0.3985    0.0000    0.0000;
    87    1    0    0    0    0    1    1.08393865    31.6609547    220    3    1.11    0.95    99.8837    0.1014    0.0000    0.0000;
    88    1    0    0    0    0    1    1.08391622    31.6667435    220    3    1.11    0.95    99.8819    0.1022    0.0000    0.0000;
    89    1    0    0    0    0    1    1.08925883    32.9030693    220    3    1.11    0.95    99.5000    -0.4139    0.0000    0.0000;
    90    1    0    0    0    0    1    1.08926067    32.8984726    220    3    1.11    0.95    99.5022    -0.4161    0.0000    0.0000;
    91    1    0    0    0    0    1    1.03155917    34.1166619    400    3    1.05    0.95    99.2147    -0.2518    0.0000    0.0000;
    92    1    0    0    0    0    1    1.03155704    34.1148384    400    3    1.05    0.95    99.2150    -0.2518    0.0000    0.0000;
    93    1    0    0    0    0    1    1.08489194    31.2451327    220    3    1.11    0.95    100.0665    0.0637    0.0000    0.0000;
    94    1    0    0    0    0    1    1.08489277    31.2405639    220    3    1.11    0.95    100.0682    0.0640    0.0000    0.0000;
    95    1    0    0    0    0    1    1.08471898    31.4480265    220    3    1.11    0.95    100.0032    -0.1863    0.0000    0.0000;
    96    1    0    0    0    0    1    1.08471774    31.4452967    220    3    1.11    0.95    100.0027    -0.1888    0.0000    0.0000;
    97    2    12.49    3.696    0    0    1    1.08955    32.2467052    220    3    1.11    0.95    99.6560    -0.2413    0.0000    0.0000;
    98    1    17.327    6.126    0    0    1    1.08953803    32.2400197    220    3    1.11    0.95    99.6584    -0.2434    0.0000    0.0000;
    99    1    0    0    0    0    1    1.09194505    29.0017719    220    3    1.11    0.95    101.2403    -0.5372    0.0000    0.0000;
    100    1    0    0    0    0    1    1.09195107    29.0015995    220    3    1.11    0.95    101.2400    -0.5362    0.0000    0.0000;
    101    1    0    0    0    0    1    1.07668442    30.1913686    220    3    1.11    0.95    100.9840    0.3400    0.0000    0.0000;
    102    1    0    0    0    0    1    1.07664995    30.1917317    220    3    1.11    0.95    100.9833    0.3405    0.0000    0.0000;
    103    2    14    40    0    0    1    1.08905    31.3430635    220    3    1.11    0.95    100.1083    0.0000    0.0000    0.0000;
    104    2    0    0    0    0    1    1.08898676    31.3154225    220    3    1.11    0.95    100.1174    0.0013    0.0000    0.0000;
    105    2    7    18    0    0    1    1.0875    31.7308377    220    3    1.11    0.95    99.8094    0.0000    0.0000    0.0000;
    106    2    0    0    0    0    1    1.08740155    31.7286144    220    3    1.11    0.95    99.8116    0.0000    0.0000    0.0000;
    107    1    0    13.892    0    0    1    1.08908256    31.6831831    220    3    1.11    0.95    99.9190    -0.5043    0.0000    0.0000;
    108    1    73.779    8.097    0    0    1    1.08911314    31.6732509    220    3    1.11    0.95    99.9214    -0.5078    0.0000    0.0000;
    109    1    0    0    0    0    1    1.082786    30.9318186    220    3    1.11    0.95    100.6245    0.0315    0.0000    0.0000;
    110    1    0    0    0    0    1    1.07593888    31.5657193    220    3    1.11    0.95    100.2389    0.3415    0.0000    0.0000;
    111    1    0    0    0    0    1    1.07596426    31.5663303    220    3    1.11    0.95    100.2383    0.3411    0.0000    0.0000;
    112    1    0    0    0    0    1    1.08070181    31.7635644    220    3    1.11    0.95    100.0151    0.1993    0.0000    0.0000;
    113    1    0    0    0    0    1    1.08076906    31.7728148    220    3    1.11    0.95    100.0113    0.1982    0.0000    0.0000;
    114    1    0    0    0    0    1    1.0305896    31.0905562    400    3    1.05    0.95    100.0335    -0.6552    0.0000    0.0000;
    115    2    0    0    0    0    1    1.08993315    32.6412394    220    3    1.11    0.95    99.3961    -0.0492    0.0000    0.0000;
    116    2    8    15    0    0    1    1.08992    32.6439634    220    3    1.11    0.95    99.3969    -0.0498    0.0000    0.0000;
    117    2    5.5    10    0    0    1    1.08788    31.7509164    220    3    1.11    0.95    100.0549    -0.0505    0.0000    0.0000;
    118    1    0    0    0    0    1    1.08790199    31.7417914    220    3    1.11    0.95    100.0569    -0.0515    0.0000    0.0000;
    119    1    0    0    0    0    1    1.04362969    28.7631329    400    3    1.05    0.95    101.1591    -1.1087    0.0000    0.0000;
    120    1    0    0    0    0    1    1.04365958    28.7680423    400    3    1.05    0.95    101.1569    -1.1097    0.0000    0.0000;
    121    1    0    0    0    0    1    1.03913832    31.2557656    400    3    1.05    0.95    99.9752    -1.1326    0.0000    0.0000;
    122    1    0    0    0    0    1    1.03915078    31.261116    400    3    1.05    0.95    99.9734    -1.1353    8588.8847    0.0000;
    123    1    0    0    0    0    1    1.08203376    30.8656179    220    3    1.11    0.95    100.7429    0.0437    0.0000    0.0000;
    124    2    11    17.5    0    0    1    1.09093    32.8068016    220    3    1.11    0.95    99.3793    -0.0039    0.0000    0.0000;
    125    2    41.353    61.2    0    0    1    1.09091    32.8240122    220    3    1.11    0.95    99.3738    0.0000    0.0000    0.0000;
    126    2    14    33    0    0    1    1.02511    31.5018631    400    3    1.05    0.95    99.7881    -0.2925    0.0000    0.0000;
    127    1    0    0    0    0    1    1.02510748    31.5023281    400    3    1.05    0.95    99.7881    -0.2933    0.0000    0.0000;
    128    1    0    0    0    0    1    1.0879455    32.3195615    220    3    1.11    0.95    99.7900    -0.3859    0.0000    0.0000;
    129    1    0    0    0    0    1    1.08792734    32.3217155    220    3    1.11    0.95    99.7883    -0.3854    0.0000    0.0000;
    130    1    0    0    0    0    1    1.08851222    32.5494172    220    3    1.11    0.95    99.6716    -0.3775    0.0000    0.0000;
    131    2    1.5    9    0    0    1    1.08591    30.9390033    220    3    1.11    0.95    100.5080    0.1314    0.0000    0.0000;
    132    2    0    0    0    0    1    1.08375976    30.5644797    220    3    1.11    0.95    100.6881    0.1766    0.0000    0.0000;
    133    2    11.215    8.3    0    0    1    1.09091    29.1197084    220    4    1.11    0.95    101.2167    0.0000    1024.1353    0.0000;
    134    2    10.333    7.7    0    0    1    1.09091    29.1165196    220    4    1.11    0.95    101.2175    0.0022    0.0000    0.0000;
    135    1    0    0    0    0    1    1.08086977    24.5720299    220    4    1.11    0.95    100.9562    -2.0325    0.0000    0.0000;
    136    1    0    0    0    0    1    1.08436932    25.4035566    220    4    1.11    0.95    100.8377    -1.3233    0.0000    0.0000;
    137    1    0    0    0    0    1    0.999554466    25.2396732    400    4    1.05    0.95    101.9525    0.0152    0.0000    0.0000;
    138    1    0    0    0    0    1    0.999565261    25.2397974    400    4    1.05    0.95    101.9534    0.0152    0.0000    0.0000;
    139    1    0    0    0    0    1    1.07542507    17.9545936    220    4    1.11    0.95    108.0210    0.2680    0.0000    0.0000;
    140    1    0    0    0    0    1    1.07491667    13.4014929    220    4    1.11    0.95    110.4893    0.1754    0.0000    0.0000;
    141    1    0    0    0    0    1    1.07491667    13.4014929    220    4    1.11    0.95    110.4893    0.1754    0.0000    0.0000;
    142    1    0    0    0    0    1    1.07872184    15.4472335    220    4    1.11    0.95    108.7946    0.2311    0.0000    0.0000;
    143    1    0    0    0    0    1    1.07402988    23.2862502    220    4    1.11    0.95    101.6440    -1.1967    0.0000    0.0000;
    144    1    0    0    0    0    1    1.07402988    23.2862502    220    4    1.11    0.95    101.6440    -1.1967    0.0000    0.0000;
    145    2    0    0    0    0    1    1.08964948    25.639444    220    4    1.11    0.95    103.0118    0.0224    0.0000    0.0000;
    146    2    0    0    0    0    1    1.08964227    25.6386583    220    4    1.11    0.95    103.0087    0.0234    0.0000    0.0000;
    147    2    25.553    12.9    0    0    1    1.08582    15.8142998    220    4    1.11    0.95    108.8237    0.0000    137.4001    0.0000;
    148    1    0    0    0    0    1    1.08579905    15.8185919    220    4    1.11    0.95    108.8222    0.0012    0.0000    0.0000;
    149    2    11    12    0    0    1    1.02501    17.0547168    400    4    1.05    0.95    108.5541    -0.1626    0.0000    0.0000;
    150    2    11.922    13.7    0    0    1    1.025    17.0560041    400    4    1.05    0.95    108.5538    -0.1620    0.0000    0.0000;
    151    1    0    0    0    0    1    1.05535241    17.5184384    220    4    1.11    0.95    108.6543    0.9181    0.0000    0.0000;
    152    1    0    0    0    0    1    1.08100127    19.846898    220    4    1.11    0.95    105.8110    0.2418    0.0000    0.0000;
    153    1    0    0    0    0    1    1.080981    19.8420918    220    4    1.11    0.95    105.8119    0.2429    0.0000    0.0000;
    154    2    19.475    64.3    0    0    1    1.09091    27.5424804    220    4    1.11    0.95    100.2380    -0.0784    0.0000    0.0000;
    155    2    16    33    0    0    1    1.09091    27.5343916    220    4    1.11    0.95    100.2439    -0.0748    0.0000    0.0000;
    156    1    0    0    0    0    1    1.00077893    27.1242104    400    4    1.05    0.95    100.5569    -0.0001    0.0000    0.0000;
    157    2    10    25    0    0    1    1.00076    27.1300135    400    4    1.05    0.95    100.5542    0.0000    0.0000    0.0000;
    158    1    0    0    0    0    1    1.07395941    13.4410198    220    4    1.11    0.95    110.3861    0.1678    0.0000    0.0000;
    159    1    0    0    0    0    1    1.07395941    13.4410198    220    4    1.11    0.95    110.3861    0.1678    0.0000    0.0000;
    160    1    0    0    0    0    1    1.00348886    25.2496076    400    4    1.05    0.95    101.9142    0.0037    0.0000    0.0000;
    161    1    0    0    0    0    1    1.00660989    26.4008425    400    4    1.05    0.95    101.4418    -0.0330    0.0000    0.0000;
    162    1    0    0    0    0    1    1.00659827    26.3965854    400    4    1.05    0.95    101.4436    -0.0331    0.0000    0.0000;
    163    2    5.54    2.93    0    0    1    1.09091    25.48585    220    4    1.11    0.95    103.0649    0.0000    332.7039    0.0000;
    164    2    18.255    11.5    0    0    1    1.09091    25.4775982    220    4    1.11    0.95    103.0713    0.0000    1279.9799    0.0000;
    165    1    0    0    0    0    1    1.09091    25.4775982    220    4    1.11    0.95    103.0713    0.0000    0.0000    0.0000;
    166    1    0    0    0    0    1    1.07369393    13.4978966    220    4    1.11    0.95    110.8567    0.0398    0.0000    0.0000;
    167    1    0    0    0    0    1    1.07403974    13.2658671    220    4    1.11    0.95    110.5522    0.1850    0.0000    0.0000;
    168    1    0    0    0    0    1    1.07537869    16.6674606    220    4    1.11    0.95    108.8217    0.1748    0.0000    0.0000;
    169    1    0    0    0    0    1    1.07536861    16.6591051    220    4    1.11    0.95    108.8244    0.1745    0.0000    0.0000;
    170    1    0    0    0    0    1    1.01049448    16.1030566    400    4    1.05    0.95    108.9582    0.2096    0.0000    0.0000;
    171    1    0    0    0    0    1    1.01049448    16.1030566    400    4    1.05    0.95    108.9582    0.2096    0.0000    0.0000;
    172    1    0    0    0    0    1    1.05926567    20.196117    220    4    1.11    0.95    106.2796    0.8193    0.0000    0.0000;
    173    1    0    0    0    0    1    1.05926359    20.2024476    220    4    1.11    0.95    106.2773    0.8197    0.0000    0.0000;
    174    1    0    0    0    0    1    1.06946601    20.3289624    220    4    1.11    0.95    105.2017    0.4016    0.0000    0.0000;
    175    1    0    0    0    0    1    1.07964628    24.8333104    220    4    1.11    0.95    100.9532    -1.9153    0.0000    0.0000;
    176    1    0    0    0    0    1    1.07964964    24.8424729    220    4    1.11    0.95    100.9503    -1.9197    0.0000    0.0000;
    177    1    0    0    0    0    1    1.0791479    26.1729161    220    4    1.11    0.95    100.4934    -2.2064    0.0000    0.0000;
    178    1    0    0    0    0    1    1.0791479    26.1729161    220    4    1.11    0.95    100.4934    -2.2064    0.0000    0.0000;
    179    2    3.13    1.5    0    0    1    1.09091    21.1505338    220    4    1.11    0.95    105.1553    0.0000    0.0000    0.0000;
    180    1    0    0    0    0    1    1.05675603    19.2340409    220    4    1.11    0.95    106.7210    0.8008    0.0000    0.0000;
    181    1    0    0    0    0    1    1.05269222    18.2071635    220    5    1.11    0.95    107.4384    0.2064    0.0000    0.0000;
    182    1    0    0    0    0    1    1.08321889    15.1743831    220    5    1.11    0.95    108.8386    -0.4811    0.0000    0.0000;
    183    1    0    0    0    0    1    1.03005069    16.2699072    400    5    1.05    0.95    108.4907    -0.4744    0.0000    0.0000;
    184    1    0    0    0    0    1    1.03007056    16.2683448    400    5    1.05    0.95    108.4921    -0.4746    0.0000    0.0000;
    185    1    0    0    0    0    1    1.01924321    17.9441212    400    5    1.05    0.95    107.5507    0.1630    0.0000    0.0000;
    186    1    0    0    0    0    1    1.0192642    17.941238    400    5    1.05    0.95    107.5529    0.1627    0.0000    0.0000;
    187    1    0    0    0    0    1    1.06383727    14.3568313    220    5    1.11    0.95    109.3264    0.2353    0.0000    0.0000;
    188    1    0    0    0    0    1    1.06388468    14.3547728    220    5    1.11    0.95    109.3271    0.2342    0.0000    0.0000;
    189    1    0    0    0    0    1    1.0547376    18.5681669    220    5    1.11    0.95    107.5941    0.3848    0.0000    0.0000;
    190    1    0    0    0    0    1    1.05469835    18.560342    220    5    1.11    0.95    107.5949    0.3844    0.0000    0.0000;
    191    1    0    0    0    0    1    0.999192494    18.7317732    400    5    1.05    0.95    106.7351    0.4434    0.0000    0.0000;
    192    1    0    0    0    0    1    1.05681789    18.9104449    220    5    1.11    0.95    107.1996    0.2301    0.0000    0.0000;
    193    1    0    0    0    0    1    1.05679367    18.9166493    220    5    1.11    0.95    107.1982    0.2309    0.0000    0.0000;
    194    1    0    0    0    0    1    1.01723192    16.3369618    400    5    1.05    0.95    108.4815    0.3003    0.0000    0.0000;
    195    1    0    0    0    0    1    1.01720593    16.3329823    400    5    1.05    0.95    108.4841    0.3010    0.0000    0.0000;
    196    1    0    0    0    0    1    1.05138275    13.9120248    220    5    1.11    0.95    109.8816    0.5588    0.0000    0.0000;
    197    1    0    0    0    0    1    1.05140149    13.9109644    220    5    1.11    0.95    109.8811    0.5586    0.0000    0.0000;
    198    1    0    0    0    -117    1    1.02206075    17.2288674    400    5    1.05    0.95    107.8538    -0.3758    0.0000    0.0000;
    199    1    0    0    0    0    1    1.02210505    17.2248578    400    5    1.05    0.95    107.8567    -0.3766    0.0000    0.0000;
    200    1    0    0    0    0    1    1.04685029    17.4382367    220    5    1.11    0.95    108.4342    0.6220    0.0000    0.0000;
...
];

%% generator data
%    bus    Pg    Qg    Qmax    Qmin    Vg    mBase    status    Pmax    Pmin    Pc1    Pc2    Qc1min    Qc1max    Qc2min    Qc2max    ramp_agc    ramp_10    ramp_30    ramp_q    apf    mu_Pmax    mu_Pmin    mu_Qmax    mu_Qmin
mpc.gen = [
    17    0    0    120    -22    1.07106    241.9    0    210    140    0    0    0    0    0    0    0    0    0    0    0    0.0000    0.0000    0.0000    0.0000;
    17    0    0    120    -22    1.07106    233.2    0    200    140    0    0    0    0    0    0    0    0    0    0    0    0.0000    0.0000    0.0000    0.0000;
    26    370    71.4478792    190    -19    1.09091    415.9    1    370    290    0    0    0    0    0    0    0    0    0    0    0    21.6882    0.0000    0.0000    0.0000;
    27    360    54.6848607    190    -19    1.09091    407.1    1    360    290    0    0    0    0    0    0    0    0    0    0    0    21.3519    0.0000    0.0000    0.0000;
    27    360    54.6848607    190    -19    1.09091    407.1    1    360    290    0    0    0    0    0    0    0    0    0    0    0    21.3519    0.0000    0.0000    0.0000;
    27    370    54.6848607    190    -19    1.09091    415.9    1    370    290    0    0    0    0    0    0    0    0    0    0    0    21.3519    0.0000    0.0000    0.0000;
    26    370    71.4478792    190    -19    1.09091    415.9    1    370    290    0    0    0    0    0    0    0    0    0    0    0    21.6882    0.0000    0.0000    0.0000;
    28    378.98976    -31.4209357    190    -19    1.02665    415.9    1    370    290    0    0    0    0    0    0    0    0    0    0    0    22.5073    0.0000    0.0000    0.0008;
    28    0    0    190    -19    1.02665    415.9    0    370    290    0    0    0    0    0    0    0    0    0    0    0    0.0000    0.0000    0.0000    0.0000;
    28    370    -31.4209357    190    -19    1.02665    415.9    1    370    290    0    0    0    0    0    0    0    0    0    0    0    22.5073    0.0000    0.0000    0.0008;
    29    0    0    190    -19    1.02665    415.9    0    370    290    0    0    0    0    0    0    0    0    0    0    0    0.0000    0.0000    0.0000    0.0000;
    29    370    -10.9035043    190    -19    1.02665    415.9    1    370    290    0    0    0    0    0    0    0    0    0    0    0    22.5040    0.0000    0.0000    0.0000;
    29    370    -10.9035043    190    -19    1.02665    415.9    1    370    290    0    0    0    0    0    0    0    0    0    0    0    22.5040    0.0000    0.0000    0.0000;
    42    130    -6.77818888    135    -34    1.09091    253.9    1    215    130    0    0    0    0    0    0    0    0    0    0    0    0.0000    0.2073    0.0000    0.1316;
    42    0    0    130    -34    1.09091    242.7    0    205    135    0    0    0    0    0    0    0    0    0    0    0    0.0000    0.0000    0.0000    0.0000;
    42    110    -5.16743082    145    -34    1.09091    267.7    1    225    110    0    0    0    0    0    0    0    0    0    0    0    0.0000    0.2073    0.0000    0.1316;
    43    120    -11.1558342    145    -34    1.09091    267.7    1    225    120    0    0    0    0    0    0    0    0    0    0    0    0.0000    0.2132    0.0000    0.1325;
    43    130    -11.1558342    145    -34    1.09091    267.7    1    225    130    0    0    0    0    0    0    0    0    0    0    0    0.0000    0.2132    0.0000    0.1325;
    43    0    0    130    -34    1.09091    242.7    0    205    135    0    0    0    0    0    0    0    0    0    0    0    0.0000    0.0000    0.0000    0.0000;
    44    433.768    -59.7098057    363    -47    1.01857    646.5    1    535    255    0    0    0    0    0    0    0    0    0    0    0    0.0000    0.0000    0.0000    0.0378;
    44    0    0    348    -100    1.01857    659.3    0    560    250    0    0    0    0    0    0    0    0    0    0    0    0.0000    0.0000    0.0000    0.0000;
    54    129    8.09167041    104    -1    1.09116    247.9    1    225    129    0    0    0    0    0    0    0    0    0    0    0    0.0000    4.4234    0.0000    1.0086;
    55    129    -7.99621827    130    -16    1.09114    259.9    1    225    129    0    0    0    0    0    0    0    0    0    0    0    0.0000    4.4250    0.0000    1.0101;
    54    0    0    130    -16    1.09116    259.9    0    225    129    0    0    0    0    0    0    0    0    0    0    0    0.0000    0.0000    0.0000    0.0000;
    56    129    -14.3144801    130    -16    1.04039    259.9    1    225    129    0    0    0    0    0    0    0    0    0    0    0    0.0000    4.1759    0.0000    1.1458;
    57    129    -5.03120722    130    -16    1.04036    259.9    1    225    129    0    0    0    0    0    0    0    0    0    0    0    0.0000    4.1741    0.0000    1.1461;
    57    0    0    104    -1    1.04036    247.9    0    225    129    0    0    0    0    0    0    0    0    0    0    0    0.0000    0.0000    0.0000    0.0000;
    57    129    -5.03120722    130    -16    1.04036    259.9    1    225    129    0    0    0    0    0    0    0    0    0    0    0    0.0000    4.1741    0.0000    1.1461;
    58    48.1    31.4878184    30    0    1.08754    66.5    1    48.1    48.1    0    0    0    0    0    0    0    0    0    0    0    102.0281    0.0000    0.0000    0.2262;
    77    225    55.9602446    123    -15    1.09091    256.4    1    225    140    0    0    0    0    0    0    0    0    0    0    0    3.9088    0.0000    0.0000    0.0000;
    77    225    55.9602446    123    -15    1.09091    256.4    1    225    140    0    0    0    0    0    0    0    0    0    0    0    3.9088    0.0000    0.0000    0.0000;
    78    0    0    123    -15    1.09091    252    0    220    140    0    0    0    0    0    0    0    0    0    0    0    0.0000    0.0000    0.0000    0.0000;
    78    225    12.4005911    123    -15    1.09091    256.4    1    225    140    0    0    0    0    0    0    0    0    0    0    0    3.9765    0.0000    0.0000    0.0000;
    78    225    12.4005911    123    -15    1.09091    256.4    1    225    140    0    0    0    0    0    0    0    0    0    0    0    3.9765    0.0000    0.0000    0.0000;
    81    380    -34.5392055    232    -31    1.02168    445.2    1    380    220    0    0    0    0    0    0    0    0    0    0    0    9.4011    0.0000    0.0000    0.0467;
    81    0    0    228    -30    1.02168    434.6    0    370    220    0    0    0    0    0    0    0    0    0    0    0    0.0000    0.0000    0.0000    0.0000;
    97    9    2.09738671    1    0    1.08955    12    1    9    9    0    0    0    0    0    0    0    0    0    0    0    99.6560    0.0000    0.0000    0.2413;
    97    6    2.09738671    1    0    1.08955    6.1    1    6    6    0    0    0    0    0    0    0    0    0    0    0    99.6560    0.0000    0.0000    0.2413;
    103    225    106.645686    123    -15    1.08905    256.4    1    225    134    0    0    0    0    0    0    0    0    0    0    0    7.3283    0.0000    0.0000    0.0000;
    104    0    0    123    -15    1.08898    256.4    0    225    134    0    0    0    0    0    0    0    0    0    0    0    0.0000    0.0000    0.0000    0.0000;
    105    120    72.8890265    80    -2    1.0875    144.2    1    120    79    0    0    0    0    0    0    0    0    0    0    0    5.7194    0.0000    0.0000    0.0000;
    106    0    0    80    -2    1.0874    144.2    0    120    79    0    0    0    0    0    0    0    0    0    0    0    0.0000    0.0000    0.0000    0.0000;
    115    0    0    90    -20    1.08993    150    0    120    90    0    0    0    0    0    0    0    0    0    0    0    0.0000    0.0000    0.0000    0.0000;
    116    120    -2.34870995    82    -2    1.08992    145.3    1    120    70    0    0    0    0    0    0    0    0    0    0    0    2.2769    0.0000    0.0000    0.0498;
    117    110    0.44493431    40    0    1.08788    117    1    110    80    0    0    0    0    0    0    0    0    0    0    0    0.5349    0.0000    0.0000    0.0505;
    124    215    -38.0114922    135    -35    1.09093    253.9    1    215    160    0    0    0    0    0    0    0    0    0    0    0    8.2193    0.0000    0.0000    0.0039;
    125    225    53.0823954    140    -35    1.09091    265    1    225    140    0    0    0    0    0    0    0    0    0    0    0    8.2138    0.0000    0.0000    0.0000;
    125    215    50.5657555    135    -35    1.09091    253.9    1    215    160    0    0    0    0    0    0    0    0    0    0    0    8.2138    0.0000    0.0000    0.0000;
    126    225    -36.651155    140    -40    1.02511    265    1    225    140    0    0    0    0    0    0    0    0    0    0    0    8.6281    0.0000    0.0000    0.2925;
    126    0    0    137    -40    1.02511    259.2    0    220    160    0    0    0    0    0    0    0    0    0    0    0    0.0000    0.0000    0.0000    0.0000;
    131    125    27.9303658    40    -38    1.08591    131.2    1    125    0    0    0    0    0    0    0    0    0    0    0    0    100.4980    0.0000    0.1314    0.0000;
    131    0    0    40    -38    1.08591    131.2    0    125    0    0    0    0    0    0    0    0    0    0    0    0    0.0000    0.0000    0.0000    0.0000;
    132    0    0    40    -38    1.08371    131.2    0    125    0    0    0    0    0    0    0    0    0    0    0    0    0.0000    0.0000    0.0000    0.0000;
    132    0    0    40    -38    1.08371    131.2    0    125    0    0    0    0    0    0    0    0    0    0    0    0    0.0000    0.0000    0.0000    0.0000;
    133    0    0    90    0    1.09091    150    0    120    100    0    0    0    0    0    0    0    0    0    0    0    0.0000    0.0000    0.0000    0.0000;
    133    120    34.2226935    90    0    1.09091    150    1    120    100    0    0    0    0    0    0    0    0    0    0    0    8.7867    0.0000    0.0000    0.0000;
    134    120    47.7366274    90    0    1.09091    150    1    120    100    0    0    0    0    0    0    0    0    0    0    0    8.7875    0.0000    0.0022    0.0000;
    145    0    0    12    0    1.08954    51.4    0    50    30    0    0    0    0    0    0    0    0    0    0    0    0.0000    0.0000    0.0000    0.0000;
    145    0    0    12    0    1.08954    51.4    0    50    30    0    0    0    0    0    0    0    0    0    0    0    0.0000    0.0000    0.0000    0.0000;
    146    0    0    90    0    1.08953    150    0    120    90    0    0    0    0    0    0    0    0    0    0    0    0.0000    0.0000    0.0000    0.0000;
    147    0    0    149    -48    1.08582    267.4    0    222    90    0    0    0    0    0    0    0    0    0    0    0    0.0000    0.0000    0.0000    0.0000;
    147    0    0    149    -48    1.08582    253.4    0    205    135    0    0    0    0    0    0    0    0    0    0    0    0.0000    0.0000    0.0000    0.0000;
    147    0    0    149    -48    1.08582    253.4    0    205    135    0    0    0    0    0    0    0    0    0    0    0    0.0000    0.0000    0.0000    0.0000;
    147    90    76.5860893    149    -48    1.08582    267.4    1    222    90    0    0    0    0    0    0    0    0    0    0    0    0.0000    7.1863    0.0000    0.0000;
    149    90    -21.7194151    123    -23    1.02501    253.8    1    222    90    0    0    0    0    0    0    0    0    0    0    0    0.0000    7.4559    0.0000    0.1626;
    150    90    -37.2506207    149    -48    1.025    267.4    1    222    90    0    0    0    0    0    0    0    0    0    0    0    0.0000    7.4562    0.0000    0.1620;
    150    0    0    123    -23    1.025    253.8    0    222    90    0    0    0    0    0    0    0    0    0    0    0    0.0000    0.0000    0.0000    0.0000;
    154    235    17.812269    149    -53    1.09091    278.3    1    235    94    0    0    0    0    0    0    0    0    0    0    0    1.3980    0.0000    0.0000    0.0784;
    154    0    0    149    -53    1.09091    278.3    0    235    94    0    0    0    0    0    0    0    0    0    0    0    0.0000    0.0000    0.0000    0.0000;
    154    261    42.0666944    120    0    1.09091    287.3    1    261    104    0    0    0    0    0    0    0    0    0    0    0    1.3980    0.0000    0.0000    0.0784;
    154    0    0    132    -40    1.09091    292.5    0    261    104    0    0    0    0    0    0    0    0    0    0    0    0.0000    0.0000    0.0000    0.0000;
    155    0    0    120    0    1.09091    287.3    0    261    104    0    0    0    0    0    0    0    0    0    0    0    0.0000    0.0000    0.0000    0.0000;
    155    205    22.8469519    117    -22    1.09091    236    1    205    130    0    0    0    0    0    0    0    0    0    0    0    1.4039    0.0000    0.0000    0.0748;
    155    206    21.6205525    109    -20    1.09091    233.1    1    206    120    0    0    0    0    0    0    0    0    0    0    0    1.4039    0.0000    0.0000    0.0748;
    155    0    0    109    -20    1.09091    233.1    0    206    120    0    0    0    0    0    0    0    0    0    0    0    0.0000    0.0000    0.0000    0.0000;
    157    206    -24.7769106    109    -20    1.00076    233.1    1    206    120    0    0    0    0    0    0    0    0    0    0    0    1.7142    0.0000    0.0000    0.0000;
    163    0    0    104    -23    1.09091    225.4    0    200    150    0    0    0    0    0    0    0    0    0    0    0    0.0000    0.0000    0.0000    0.0000;
    163    200    86.9342377    104    -23    1.09091    225.4    1    200    150    0    0    0    0    0    0    0    0    0    0    0    13.8449    0.0000    0.0000    0.0000;
    164    200    61.9657871    104    -23    1.09091    225.4    1    200    150    0    0    0    0    0    0    0    0    0    0    0    13.8513    0.0000    0.0000    0.0000;
    164    200    61.9657871    104    -23    1.09091    225.4    1    200    150    0    0    0    0    0    0    0    0    0    0    0    13.8513    0.0000    0.0000    0.0000;
    179    170    44.0696593    110    0    1.09091    219.5    1    170    170    0    0    0    0    0    0    0    0    0    0    0    105.1553    0.0000    0.0000    0.0000;
    204    179    4.57087039    110    -60    1.025    210.1    1    179    0    0    0    0    0    0    0    0    0    0    0    0    107.0236    0.0000    0.0000    0.0006;
    204    179    4.57087039    110    -60    1.025    210.1    1    179    0    0    0    0    0    0    0    0    0    0    0    0    107.0236    0.0000    0.0000    0.0006;
    204    179    4.57087039    110    -60    1.025    210.1    1    179    0    0    0    0    0    0    0    0    0    0    0    0    107.0236    0.0000    0.0000    0.0006;
    205    179    1.95637234    110    -60    1.025    210.1    1    179    0    0    0    0    0    0    0    0    0    0    0    0    107.0237    0.0000    0.0000    0.0000;
    214    35    6.1003691    20    0    1.09209    58.5    1    35    35    0    0    0    0    0    0    0    0    0    0    0    106.3528    0.0000    0.0000    0.0000;
    214    0    0    20    0    1.09209    53.9    0    0    0    0    0    0    0    0    0    0    0    0    0    0    0.0000    0.0000    0.0000    0.0000;
    214    0    0    20    0    1.09209    53.9    0    0    0    0    0    0    0    0    0    0    0    0    0    0    0.0000    0.0000    0.0000    0.0000;
    214    10    6.1003691    20    0    1.09209    30.5    1    10    10    0    0    0    0    0    0    0    0    0    0    0    106.3528    0.0000    0.0000    0.0000;
    220    1.55    0.213436437    1    0    1.08853    2.3    1    1.55    1.55    0    0    0    0    0    0    0    0    0    0    0    102.9820    0.0000    0.0000    0.0000;
    221    1.55    0.322881991    1    0    1.07119    2.3    1    1.55    1.55    0    0    0    0    0    0    0    0    0    0    0    102.1784    0.0000    0.1191    0.0000;
    239    7    1.24501068    6    0    1.05821    9.8    1    7    7    0    0    0    0    0    0    0    0    0    0    0    108.7679    0.0000    1.0653    0.0000;
    246    370    -13.3734653    190    -19    1.03937    415.9    1    370    290    0    0    0    0    0    0    0    0    0    0    0    21.8055    0.0000    0.0000    0.0000;
    309    0    0    7    0    1.08081    27.9    0    0    0    0    0    0    0    0    0    0    0    0    0    0    0.0000    0.0000    0.0000    0.0000;
    309    0    0    7    0    1.08081    27.9    0    0    0    0    0    0    0    0    0    0    0    0    0    0    0.0000    0.0000    0.0000    0.0000;
    309    11    3.43271991    7    4    1.08081    30.8    1    11    11    0    0    0    0    0    0    0    0    0    0    0    100.5960    0.0000    0.4579    0.0000;
    309    0    0    7    0    1.08081    27.9    0    0    0    0    0    0    0    0    0    0    0    0    0    0    0.0000    0.0000    0.0000    0.0000;
    309    0    0    6    0    1.08081    27.7    0    0    0    0    0    0    0    0    0    0    0    0    0    0    0.0000    0.0000    0.0000    0.0000;
    309    0    0    7    0    1.08081    27.9    0    0    0    0    0    0    0    0    0    0    0    0    0    0    0.0000    0.0000    0.0000    0.0000;
    309    0    0    7    0    1.08081    27.9    0    0    0    0    0    0    0    0    0    0    0    0    0    0    0.0000    0.0000    0.0000    0.0000;
    310    15    2.04338656    15    0    1.08142    36.7    1    15    15    0    0    0    0    0    0    0    0    0    0    0    101.0131    0.0000    0.2846    0.0000;
    310    0    0    15    0    1.08142    57    0    0    0    0    0    0    0    0    0    0    0    0    0    0    0.0000    0.0000    0.0000    0.0000;
    311    15    3.76556506    15    0    1.0633    36.7    1    15    15    0    0    0    0    0    0    0    0    0    0    0    102.2436    0.0000    0.6692    0.0000;
    311    0    0    15    0    1.0633    57    0    0    0    0    0    0    0    0    0    0    0    0    0    0    0.0000    0.0000    0.0000    0.0000;
    313    30    8.98322147    20    0    1.08629    53.9    1    30    30    0    0    0    0    0    0    0    0    0    0    0    100.1466    0.0000    0.4246    0.0000;
    313    0    0    20    0    1.08629    53.9    0    0    0    0    0    0    0    0    0    0    0    0    0    0    0.0000    0.0000    0.0000    0.0000;
    314    0    0    40    0    1.07946    107.7    0    0    0    0    0    0    0    0    0    0    0    0    0    0    0.0000    0.0000    0.0000    0.0000;
    322    2.5    1.1599416    3    0    1.08468    4.1    1    2.5    2.5    0    0    0    0    0    0    0    0    0    0    0    100.3025    0.0000    0.4638    0.0000;
    365    43.25    6.66813429    12    0    1.08196    47.8    1    43.25    43.25    0    0    0    0    0    0    0    0    0    0    0    105.1480    0.0000    0.1215    0.0000;
    366    43.25    9.59044728    12    0    1.06579    47.8    1    43.25    43.25    0    0    0    0    0    0    0    0    0    0    0    106.9522    0.0000    0.5644    0.0000;
    367    43.25    2.85181961    12    0    1.08899    47.8    1    43.25    43.25    0    0    0    0    0    0    0    0    0    0    0    104.2165    0.0000    0.0000    0.0000;
    368    43.25    9.37701192    12    0    1.08537    47.8    1    43.25    43.25    0    0    0    0    0    0    0    0    0    0    0    106.1289    0.0000    0.5321    0.0000;
    385    140    57.6861082    138    -47    1.09091    251.3    1    210    140    0    0    0    0    0    0    0    0    0    0    0    0.0000    5.1947    0.0000    0.0000;
    385    0    0    10    0    1.09091    26.9    0    25    12    0    0    0    0    0    0    0    0    0    0    0    0.0000    0.0000    0.0000    0.0000;
    386    10    0.872633499    10    0    1.0782    19.7    1    17    10    0    0    0    0    0    0    0    0    0    0    0    0.0000    4.0011    0.0000    0.0000;
    443    1.5    0.958075134    2    0    1.04966    3.6    1    1.5    1.5    0    0    0    0    0    0    0    0    0    0    0    100.0280    0.0000    0.3760    0.0000;
    452    5.21    1.06685773    2    0    1.07378    6.1    1    5.21    5.21    0    0    0    0    0    0    0    0    0    0    0    103.9109    0.0000    0.5886    0.0000;
    452    0    0    2    0    1.07378    6.1    0    0    0    0    0    0    0    0    0    0    0    0    0    0    0.0000    0.0000    0.0000    0.0000;
    485    1.4    0.907209361    0.7    0    1.05018    1.7    1    1.4    1.4    0    0    0    0    0    0    0    0    0    0    0    100.1099    0.0000    0.4896    0.0000;
    536    40    8.83856127    14    0    1.06099    53.9    1    40    40    0    0    0    0    0    0    0    0    0    0    0    106.7163    0.0000    1.3714    0.0000;
    536    0    0    14    0    1.06099    34.9    0    0    0    0    0    0    0    0    0    0    0    0    0    0    0.0000    0.0000    0.0000    0.0000;
    536    0    0    14    0    1.06099    34    0    0    0    0    0    0    0    0    0    0    0    0    0    0    0.0000    0.0000    0.0000    0.0000;
    536    0    0    14    0    1.06099    105.9    0    0    0    0    0    0    0    0    0    0    0    0    0    0    0.0000    0.0000    0.0000    0.0000;
    536    0    0    14    0    1.06099    105.9    0    0    0    0    0    0    0    0    0    0    0    0    0    0    0.0000    0.0000    0.0000    0.0000;
    537    25    6.39008182    17.5    0    1.05485    36.5    1    25    25    0    0    0    0    0    0    0    0    0    0    0    106.9421    0.0000    1.1885    0.0000;
    537    25    6.39008182    17.5    0    1.05485    35.6    1    25    25    0    0    0    0    0    0    0    0    0    0    0    106.9421    0.0000    1.1885    0.0000;
    537    0    0    17.5    0    1.05485    126.2    0    0    0    0    0    0    0    0    0    0    0    0    0    0    0.0000    0.0000    0.0000    0.0000;
    537    0    0    17.5    0    1.05485    106.4    0    0    0    0    0    0    0    0    0    0    0    0    0    0    0.0000    0.0000    0.0000    0.0000;
    551    1.4    -0.32578281    0.7    0    1.05264    1.7    1    1.4    1.4    0    0    0    0    0    0    0    0    0    0    0    107.6947    0.0000    1.6230    0.0000;
    559    30    1.78152082    5    0    1.05731    34.4    1    30    30    0    0    0    0    0    0    0    0    0    0    0    107.1970    0.0000    1.4431    0.0000;
    559    0    0    5    0    1.05731    28.4    0    0    0    0    0    0    0    0    0    0    0    0    0    0    0.0000    0.0000    0.0000    0.0000;
    559    0    0    5    0    1.05731    26.5    0    0    0    0    0    0    0    0    0    0    0    0    0    0    0.0000    0.0000    0.0000    0.0000;
    559    0    0    5    0    1.05731    30.4    0    0    0    0    0    0    0    0    0    0    0    0    0    0    0.0000    0.0000    0.0000    0.0000;
    559    0    0    5    0    1.05731    34.4    0    0    0    0    0    0    0    0    0    0    0    0    0    0    0.0000    0.0000    0.0000    0.0000;
    560    30    -1.70731549    5    0    1.05563    34.4    1    30    30    0    0    0    0    0    0    0    0    0    0    0    107.0075    0.0000    1.4200    0.0000;
    560    0    0    5    0    1.05563    34.4    0    0    0    0    0    0    0    0    0    0    0    0    0    0    0.0000    0.0000    0.0000    0.0000;
    560    0    0    5    0    1.05563    26.5    0    0    0    0    0    0    0    0    0    0    0    0    0    0    0.0000    0.0000    0.0000    0.0000;
    560    0    0    5    0    1.05563    34.4    0    0    0    0    0    0    0    0    0    0    0    0    0    0    0.0000    0.0000    0.0000    0.0000;
    573    1    0.824243261    4    0    1.07878    8.9    1    1    1    0    0    0    0    0    0    0    0    0    0    0    101.2170    0.0000    0.1598    0.0000;
    626    78    -0.00666535388    30    0    1.09062    97.7    1    78    78    0    0    0    0    0    0    0    0    0    0    0    98.9717    0.0000    0.0000    0.1920;
    626    30    -0.00666535388    30    0    1.09062    46.8    1    30    30    0    0    0    0    0    0    0    0    0    0    0    98.9717    0.0000    0.0000    0.1920;
    664    130    51.0409982    145    -34    1.09109    267.7    1    225    130    0    0    0    0    0    0    0    0    0    0    0    0.0000    0.8059    0.0000    0.0000;
    665    0    0    145    -34    1.09081    267.7    0    225    130    0    0    0    0    0    0    0    0    0    0    0    0.0000    0.0000    0.0000    0.0000;
    685    150    0.159200429    30    0    1.0956    182.5    1    150    150    0    0    0    0    0    0    0    0    0    0    0    100.9386    0.0000    0.0000    0.3032;
    685    50    0.159200429    30    0    1.0956    77.5    1    50    50    0    0    0    0    0    0    0    0    0    0    0    100.9386    0.0000    0.0000    0.3032;
    691    2.43    1.41375515    1.8    0    1.08826    3.1    1    2.43    2.43    0    0    0    0    0    0    0    0    0    0    0    101.7600    0.0000    0.0000    0.1916;
    716    1.47    1.69965701    1.3    0    1.0787    10.1    1    1.47    1.47    0    0    0    0    0    0    0    0    0    0    0    101.3106    0.0000    0.0000    0.3272;
    740    129    13.5994599    130    -16    1.09091    259.9    1    225    129    0    0    0    0    0    0    0    0    0    0    0    0.0000    5.3836    0.0000    0.7237;
    763    86    -0.702247267    30    0    1.07793    105.4    1    86    86    0    0    0    0    0    0    0    0    0    0    0    100.7861    0.0000    0.0000    0.7184;
    792    1    1.78972045    1    0    1.05313    8.4    1    1    1    0    0    0    0    0    0    0    0    0    0    0    102.2924    0.0000    0.0000    0.0000;
    796    68.1    -2.9010263    23    0    1.06122    71.9    1    68.1    5    0    0    0    0    0    0    0    0    0    0    0    100.8896    0.0000    0.0000    0.0000;
    796    0    0    23    0    1.06122    71.9    0    68.1    5    0    0    0    0    0    0    0    0    0    0    0    0.0000    0.0000    0.0000    0.0000;
    796    0    0    11    0    1.06122    32.9    0    31    16    0    0    0    0    0    0    0    0    0    0    0    0.0000    0.0000    0.0000    0.0000;
    796    0    0    10    0    1.06122    32.6    0    31    16    0    0    0    0    0    0    0    0    0    0    0    0.0000    0.0000    0.0000    0.0000;
    807    0    0    10    0    1.08198    125.4    0    125    84    0    0    0    0    0    0    0    0    0    0    0    0.0000    0.0000    0.0000    0.0000;
    808    92    2.22510513    10    0    1.08715    125.4    1    125    92    0    0    0    0    0    0    0    0    0    0    0    0.0000    11.7016    0.0000    0.2155;
    845    15    9.53382953    8.1    0    1.07142    33    1    15    15    0    0    0    0    0    0    0    0    0    0    0    101.4845    0.0000    0.0000    0.3422;
    845    15    9.53382953    8.1    0    1.07142    33    1    15    15    0    0    0    0    0    0    0    0    0    0    0    101.4845    0.0000    0.0000    0.3422;
    845    0    0    0    0    1.07142    19    0    0    0    0    0    0    0    0    0    0    0    0    0    0    0.0000    0.0000    0.0000    0.0000;
    845    0    0    0    0    1.07142    19    0    0    0    0    0    0    0    0    0    0    0    0    0    0    0.0000    0.0000    0.0000    0.0000;
    877    35    13.3333666    41.2    0    1.08527    87.7    1    35    35    0    0    0    0    0    0    0    0    0    0    0    99.6941    0.0000    0.0000    0.0000;
    900    0    0    45    -10    1.07146    65.8    0    0    0    0    0    0    0    0    0    0    0    0    0    0    0.0000    0.0000    0.0000    0.0000;
    900    50    19.0219385    45    -10    1.07146    71.1    1    50    50    0    0    0    0    0    0    0    0    0    0    0    100.4491    0.0000    0.0000    0.0000;
    900    0    0    45    -10    1.07146    71.1    0    0    0    0    0    0    0    0    0    0    0    0    0    0    0.0000    0.0000    0.0000    0.0000;
    975    0    0    110    -40    1.07686    162.2    0    0    0    0    0    0    0    0    0    0    0    0    0    0    0.0000    0.0000    0.0000    0.0000;
    976    100    31.3960882    110    -40    1.08609    162.2    1    100    100    0    0    0    0    0    0    0    0    0    0    0    99.8359    0.0000    0.0000    0.0000;
    980    0    0    0    0    1.08643    16.8    0    0    0    0    0    0    0    0    0    0    0    0    0    0    0.0000    0.0000    0.0000    0.0000;
    1001    386    64.2656095    240    -32    1.10276    454.5    1    386    220    0    0    0    0    0    0    0    0    0    0    0    8.2033    0.0000    0.0000    0.0000;
    1002    370    36.6527813    227    -30    1.09091    434.1    1    370    220    0    0    0    0    0    0    0    0    0    0    0    8.2850    0.0000    0.0000    0.0000;
    1006    6    1.45443454    1.447    0    1.08426    7.1    1    6    6    0    0    0    0    0    0    0    0    0    0    0    99.5548    0.0000    0.2022    0.0000;
    1005    4    0.452912643    0.447    0    1.08426    4    1    4    4    0    0    0    0    0    0    0    0    0    0    0    99.5534    0.0000    0.2022    0.0000;
    1006    4    0.449296641    0.447    0    1.08426    5    1    4    4    0    0    0    0    0    0    0    0    0    0    0    99.5548    0.0000    0.2022    0.0000;
    1006    0    0    0    0    1.08426    6    0    0    0    0    0    0    0    0    0    0    0    0    0    0    0.0000    0.0000    0.0000    0.0000;
    1007    0    0    110    -40    1.08332    174.1    0    0    0    0    0    0    0    0    0    0    0    0    0    0    0.0000    0.0000    0.0000    0.0000;
    1013    15    5.84380999    4.8    0    1.07931    20.6    1    15    15    0    0    0    0    0    0    0    0    0    0    0    99.3353    0.0000    0.1660    0.0000;
    1013    0    0    0    0    1.07931    12.8    0    0    0    0    0    0    0    0    0    0    0    0    0    0    0.0000    0.0000    0.0000    0.0000;
    1013    0    0    0    0    1.07931    12.5    0    0    0    0    0    0    0    0    0    0    0    0    0    0    0.0000    0.0000    0.0000    0.0000;
    1015    0    0    0    0    1.07594    20    0    0    0    0    0    0    0    0    0    0    0    0    0    0    0.0000    0.0000    0.0000    0.0000;
    1015    0    0    0    0    1.07594    19    0    0    0    0    0    0    0    0    0    0    0    0    0    0    0.0000    0.0000    0.0000    0.0000;
    1024    12    18.4418358    18    9    1.05936    30    1    12    12    0    0    0    0    0    0    0    0    0    0    0    102.5270    0.0000    0.6994    0.0000;
    1025    0    0    18    9    1.05941    30    0    0    0    0    0    0    0    0    0    0    0    0    0    0    0.0000    0.0000    0.0000    0.0000;
    1026    0    0    14    10.5    1.05936    32.2    0    0    0    0    0    0    0    0    0    0    0    0    0    0    0.0000    0.0000    0.0000    0.0000;
    1113    0    0    37.5    16.8    1.08345    62.5    0    0    0    0    0    0    0    0    0    0    0    0    0    0    0.0000    0.0000    0.0000    0.0000;
    1114    0    0    37.5    7.5    1.07469    62.5    0    0    0    0    0    0    0    0    0    0    0    0    0    0    0.0000    0.0000    0.0000    0.0000;
    1113    50    38.1040298    37.5    7.5    1.08345    62.5    1    50    50    0    0    0    0    0    0    0    0    0    0    0    100.1524    0.0000    0.0695    0.0000;
    1115    0    0    37.5    16.8    1.08094    62.5    0    0    0    0    0    0    0    0    0    0    0    0    0    0    0.0000    0.0000    0.0000    0.0000;
    1152    17    5.54912017    5.251    0    1.06515    30.5    1    17    17    0    0    0    0    0    0    0    0    0    0    0    101.6968    0.0000    0.1697    0.0000;
    1152    0    0    0    0    1.06515    6    0    0    0    0    0    0    0    0    0    0    0    0    0    0    0.0000    0.0000    0.0000    0.0000;
...